56

C -5.0525 -0.1385 -0.0292 
N -3.5776 -0.0843 -0.0083 
C -2.9369 1.1006 -0.0027 
C -1.5378 1.1522 0.0088 
C -0.7508 -0.0134 0.0145 
C -1.4776 -1.2174 0.014 
C -2.8768 -1.2352 0.0021 
C 0.7531 0.0248 0.0146 
C 1.48 1.2288 0.0139 
C 2.8798 1.2485 0.0021 
N 3.5799 0.0977 -0.0081 
C 5.0556 0.1186 -0.0289 
C 2.9383 -1.0874 -0.0022 
C 1.54 -1.1406 0.0092 
H -5.464 0.8734 -0.0328 
H -5.3795 -0.6734 0.8662 
H -5.353 -0.6685 -0.9368 
H -3.5403 2.0049 -0.0093 
H -1.0965 2.1456 0.0107 
H -0.9868 -2.1873 0.0206 
H -3.4399 -2.1654 -0.001 
H 0.9886 2.1986 0.0204 
H 3.4365 2.1823 -0.0009 
H 5.4151 1.1501 -0.0309 
H 5.3828 -0.394 -0.9373 
H 5.4092 -0.4004 0.8657 
H 3.548 -1.9878 -0.0087 
H 1.0991 -2.1343 0.0112 
C 0.5524 -3.3068 3.5535 
N 1.3719 -4.1905 2.7014 
C 2.6378 -3.8548 2.3861 
C 3.4126 -4.689 1.5712 
C 2.911 -5.8963 1.0528 
C 1.5869 -6.1934 1.4221 
C 0.8385 -5.3381 2.2385 
C 3.7261 -6.7977 0.1661 
C 5.0499 -6.5 -0.2043 
C 5.7922 -7.343 -1.04 
N 5.2515 -8.48 -1.5191 
C 6.0314 -9.3644 -2.4068 
C 3.9889 -8.8209 -1.194 
C 3.221 -7.9994 -0.3612 
H 1.1301 -2.4264 3.844 
H 0.2618 -3.8746 4.4411 
H -0.3241 -3.0053 2.9739 
H 3.0299 -2.9214 2.7823 
H 4.4228 -4.3472 1.3613 
H 1.0845 -7.0981 1.0892 
H -0.1863 -5.5653 2.5226 
H 5.5563 -5.6015 0.1395 
H 6.8143 -7.1066 -1.325 
H 7.0276 -8.9468 -2.5697 
H 5.496 -9.4379 -3.3571 
H 6.1084 -10.3406 -1.9213 
H 3.5987 -9.7493 -1.6043 
H 2.2119 -8.3436 -0.1484 
