56

C -5.0525 -0.1385 -0.0292 
N -3.5776 -0.0843 -0.0083 
C -2.9369 1.1006 -0.0027 
C -1.5378 1.1522 0.0088 
C -0.7508 -0.0134 0.0145 
C -1.4776 -1.2174 0.014 
C -2.8768 -1.2352 0.0021 
C 0.7531 0.0248 0.0146 
C 1.48 1.2288 0.0139 
C 2.8798 1.2485 0.0021 
N 3.5799 0.0977 -0.0081 
C 5.0556 0.1186 -0.0289 
C 2.9383 -1.0874 -0.0022 
C 1.54 -1.1406 0.0092 
H -5.464 0.8734 -0.0328 
H -5.3795 -0.6734 0.8662 
H -5.353 -0.6685 -0.9368 
H -3.5403 2.0049 -0.0093 
H -1.0965 2.1456 0.0107 
H -0.9868 -2.1873 0.0206 
H -3.4399 -2.1654 -0.001 
H 0.9886 2.1986 0.0204 
H 3.4365 2.1823 -0.0009 
H 5.4151 1.1501 -0.0309 
H 5.3828 -0.394 -0.9373 
H 5.4092 -0.4004 0.8657 
H 3.548 -1.9878 -0.0087 
H 1.0991 -2.1343 0.0112 
C -0.95 -4.8603 4.8488 
N 0.4143 -4.9339 4.2903 
C 1.0359 -3.821 3.8549 
C 2.3268 -3.8919 3.3175 
C 3.0215 -5.11 3.2096 
C 2.3223 -6.2334 3.686 
C 1.032 -6.1293 4.2176 
C 4.4038 -5.2049 2.6237 
C 5.1026 -4.0817 2.1462 
C 6.3842 -4.1873 1.5926 
N 6.9931 -5.3854 1.5014 
C 8.3409 -5.4978 0.9101 
C 6.3752 -6.4968 1.9476 
C 5.094 -6.4244 2.5058 
H -1.303 -3.8265 4.8389 
H -0.911 -5.2336 5.8754 
H -1.598 -5.4835 4.227 
H 0.5027 -2.8769 3.9338 
H 2.7589 -2.9508 2.9868 
H 2.7504 -7.2323 3.6612 
H 0.4893 -6.9975 4.5838 
H 4.6792 -3.081 2.1831 
H 6.9187 -3.3159 1.2227 
H 8.6972 -4.5125 0.6012 
H 8.2695 -6.1593 0.0428 
H 9.0051 -5.9156 1.671 
H 6.9091 -7.4394 1.8537 
H 4.6639 -7.3652 2.8398 
