56

C -5.0525 -0.1385 -0.0292 
N -3.5776 -0.0843 -0.0083 
C -2.9369 1.1006 -0.0027 
C -1.5378 1.1522 0.0088 
C -0.7508 -0.0134 0.0145 
C -1.4776 -1.2174 0.014 
C -2.8768 -1.2352 0.0021 
C 0.7531 0.0248 0.0146 
C 1.48 1.2288 0.0139 
C 2.8798 1.2485 0.0021 
N 3.5799 0.0977 -0.0081 
C 5.0556 0.1186 -0.0289 
C 2.9383 -1.0874 -0.0022 
C 1.54 -1.1406 0.0092 
H -5.464 0.8734 -0.0328 
H -5.3795 -0.6734 0.8662 
H -5.353 -0.6685 -0.9368 
H -3.5403 2.0049 -0.0093 
H -1.0965 2.1456 0.0107 
H -0.9868 -2.1873 0.0206 
H -3.4399 -2.1654 -0.001 
H 0.9886 2.1986 0.0204 
H 3.4365 2.1823 -0.0009 
H 5.4151 1.1501 -0.0309 
H 5.3828 -0.394 -0.9373 
H 5.4092 -0.4004 0.8657 
H 3.548 -1.9878 -0.0087 
H 1.0991 -2.1343 0.0112 
C -6.0602 -3.8246 -2.5481 
N -4.9954 -4.5192 -3.2982 
C -5.1005 -4.6956 -4.6295 
C -4.0945 -5.3617 -5.3399 
C -2.9469 -5.869 -4.7045 
C -2.8933 -5.6483 -3.3166 
C -3.916 -4.9788 -2.6354 
C -1.863 -6.5975 -5.4512 
C -1.9171 -6.8193 -6.839 
C -0.9062 -7.5094 -7.5184 
N 0.163 -7.9865 -6.8522 
C 1.2247 -8.7213 -7.5673 
C 0.2729 -7.7997 -5.5221 
C -0.7208 -7.1144 -4.8143 
H -6.8566 -3.5154 -3.2288 
H -5.6144 -2.9487 -2.0697 
H -6.4529 -4.5229 -1.8044 
H -5.9866 -4.3074 -5.1255 
H -4.2542 -5.4653 -6.4101 
H -2.0577 -5.9889 -2.7104 
H -3.877 -4.8098 -1.5619 
H -2.7468 -6.4671 -7.4469 
H -0.9545 -7.6801 -8.591 
H 0.9847 -8.7843 -8.6311 
H 1.2833 -9.7243 -7.1364 
H 2.1613 -8.176 -7.4254 
H 1.1555 -8.2019 -5.0304 
H -0.5589 -7.0076 -3.7446 
