56

C -5.0525 -0.1385 -0.0292 
N -3.5776 -0.0843 -0.0083 
C -2.9369 1.1006 -0.0027 
C -1.5378 1.1522 0.0088 
C -0.7508 -0.0134 0.0145 
C -1.4776 -1.2174 0.014 
C -2.8768 -1.2352 0.0021 
C 0.7531 0.0248 0.0146 
C 1.48 1.2288 0.0139 
C 2.8798 1.2485 0.0021 
N 3.5799 0.0977 -0.0081 
C 5.0556 0.1186 -0.0289 
C 2.9383 -1.0874 -0.0022 
C 1.54 -1.1406 0.0092 
H -5.464 0.8734 -0.0328 
H -5.3795 -0.6734 0.8662 
H -5.353 -0.6685 -0.9368 
H -3.5403 2.0049 -0.0093 
H -1.0965 2.1456 0.0107 
H -0.9868 -2.1873 0.0206 
H -3.4399 -2.1654 -0.001 
H 0.9886 2.1986 0.0204 
H 3.4365 2.1823 -0.0009 
H 5.4151 1.1501 -0.0309 
H 5.3828 -0.394 -0.9373 
H 5.4092 -0.4004 0.8657 
H 3.548 -1.9878 -0.0087 
H 1.0991 -2.1343 0.0112 
C -2.8442 -2.3557 -6.1221 
N -2.1521 -3.1602 -5.0961 
C -1.0518 -2.6845 -4.4816 
C -0.3904 -3.4508 -3.5143 
C -0.8385 -4.7323 -3.147 
C -1.9938 -5.1698 -3.8192 
C -2.6318 -4.3796 -4.7818 
C -0.1325 -5.5732 -2.1186 
C 1.0235 -5.1362 -1.4472 
C 1.6766 -5.9349 -0.5009 
N 1.2085 -7.1621 -0.2019 
C 1.9018 -8.0074 0.7898 
C 0.1011 -7.6328 -0.8087 
C -0.5741 -6.859 -1.7593 
H -2.3332 -1.3995 -6.2552 
H -3.869 -2.1891 -5.7802 
H -2.8276 -2.9229 -7.0564 
H -0.6997 -1.6953 -4.7633 
H 0.4903 -2.9978 -3.0664 
H -2.4418 -6.1407 -3.6237 
H -3.5235 -4.7178 -5.3042 
H 1.4638 -4.1598 -1.6337 
H 2.5713 -5.5929 0.0133 
H 2.7739 -7.4816 1.185 
H 2.2146 -8.9248 0.2843 
H 1.196 -8.2227 1.5962 
H -0.2381 -8.6281 -0.5316 
H -1.4571 -7.3108 -2.2042 
