56

C -5.0525 -0.1385 -0.0292 
N -3.5776 -0.0843 -0.0083 
C -2.9369 1.1006 -0.0027 
C -1.5378 1.1522 0.0088 
C -0.7508 -0.0134 0.0145 
C -1.4776 -1.2174 0.014 
C -2.8768 -1.2352 0.0021 
C 0.7531 0.0248 0.0146 
C 1.48 1.2288 0.0139 
C 2.8798 1.2485 0.0021 
N 3.5799 0.0977 -0.0081 
C 5.0556 0.1186 -0.0289 
C 2.9383 -1.0874 -0.0022 
C 1.54 -1.1406 0.0092 
H -5.464 0.8734 -0.0328 
H -5.3795 -0.6734 0.8662 
H -5.353 -0.6685 -0.9368 
H -3.5403 2.0049 -0.0093 
H -1.0965 2.1456 0.0107 
H -0.9868 -2.1873 0.0206 
H -3.4399 -2.1654 -0.001 
H 0.9886 2.1986 0.0204 
H 3.4365 2.1823 -0.0009 
H 5.4151 1.1501 -0.0309 
H 5.3828 -0.394 -0.9373 
H 5.4092 -0.4004 0.8657 
H 3.548 -1.9878 -0.0087 
H 1.0991 -2.1343 0.0112 
C 3.6946 4.7344 6.1946 
N 4.5999 4.5042 5.0518 
C 5.2691 5.5305 4.492 
C 6.1215 5.3136 3.4027 
C 6.3139 4.0337 2.8524 
C 5.593 3.0043 3.4837 
C 4.7482 3.2541 4.571 
C 7.2167 3.7857 1.6748 
C 7.9368 4.8152 1.0427 
C 8.7641 4.5709 -0.06 
N 8.8962 3.3243 -0.5529 
C 9.762 3.0681 -1.7206 
C 8.2353 2.2961 0.0147 
C 7.4005 2.5077 1.1177 
H 3.6901 5.7938 6.4608 
H 4.0595 4.138 7.0348 
H 2.6921 4.4193 5.8935 
H 5.1224 6.5225 4.9119 
H 6.6235 6.1927 3.0065 
H 5.657 1.9701 3.1552 
H 4.1882 2.4596 5.0583 
H 7.8824 5.8474 1.3798 
H 9.3165 5.3711 -0.5462 
H 10.2214 4.0002 -2.0572 
H 9.136 2.6511 -2.5138 
H 10.5344 2.3583 -1.4138 
H 8.3766 1.3087 -0.4185 
H 6.9018 1.6277 1.516 
