56

C -5.0525 -0.1385 -0.0292 
N -3.5776 -0.0843 -0.0083 
C -2.9369 1.1006 -0.0027 
C -1.5378 1.1522 0.0088 
C -0.7508 -0.0134 0.0145 
C -1.4776 -1.2174 0.014 
C -2.8768 -1.2352 0.0021 
C 0.7531 0.0248 0.0146 
C 1.48 1.2288 0.0139 
C 2.8798 1.2485 0.0021 
N 3.5799 0.0977 -0.0081 
C 5.0556 0.1186 -0.0289 
C 2.9383 -1.0874 -0.0022 
C 1.54 -1.1406 0.0092 
H -5.464 0.8734 -0.0328 
H -5.3795 -0.6734 0.8662 
H -5.353 -0.6685 -0.9368 
H -3.5403 2.0049 -0.0093 
H -1.0965 2.1456 0.0107 
H -0.9868 -2.1873 0.0206 
H -3.4399 -2.1654 -0.001 
H 0.9886 2.1986 0.0204 
H 3.4365 2.1823 -0.0009 
H 5.4151 1.1501 -0.0309 
H 5.3828 -0.394 -0.9373 
H 5.4092 -0.4004 0.8657 
H 3.548 -1.9878 -0.0087 
H 1.0991 -2.1343 0.0112 
C 4.737 -2.4706 6.7798 
N 4.9548 -2.824 5.3633 
C 3.9143 -3.1486 4.5717 
C 4.1216 -3.4917 3.2303 
C 5.4062 -3.5129 2.6581 
C 6.4489 -3.1593 3.5331 
C 6.2086 -2.8214 4.8696 
C 5.6471 -3.891 1.2221 
C 4.6045 -4.2458 0.3473 
C 4.8454 -4.6068 -0.9837 
N 6.1011 -4.6238 -1.4711 
C 6.3557 -5.0125 -2.8721 
C 7.1404 -4.288 -0.6818 
C 6.9326 -3.9228 0.653 
H 3.6719 -2.5183 7.0177 
H 5.1103 -1.4546 6.9315 
H 5.2899 -3.1891 7.3906 
H 2.9192 -3.136 5.0094 
H 3.2318 -3.7428 2.6585 
H 7.4873 -3.1345 3.2126 
H 7.0142 -2.5504 5.5479 
H 3.5648 -4.2579 0.665 
H 4.0357 -4.8826 -1.6547 
H 5.414 -5.2525 -3.3708 
H 7.0079 -5.8897 -2.8607 
H 6.8395 -4.1681 -3.3698 
H 8.1342 -4.3152 -1.1225 
H 7.8223 -3.6681 1.2234 
