56

C -5.0525 -0.1385 -0.0292 
N -3.5776 -0.0843 -0.0083 
C -2.9369 1.1006 -0.0027 
C -1.5378 1.1522 0.0088 
C -0.7508 -0.0134 0.0145 
C -1.4776 -1.2174 0.014 
C -2.8768 -1.2352 0.0021 
C 0.7531 0.0248 0.0146 
C 1.48 1.2288 0.0139 
C 2.8798 1.2485 0.0021 
N 3.5799 0.0977 -0.0081 
C 5.0556 0.1186 -0.0289 
C 2.9383 -1.0874 -0.0022 
C 1.54 -1.1406 0.0092 
H -5.464 0.8734 -0.0328 
H -5.3795 -0.6734 0.8662 
H -5.353 -0.6685 -0.9368 
H -3.5403 2.0049 -0.0093 
H -1.0965 2.1456 0.0107 
H -0.9868 -2.1873 0.0206 
H -3.4399 -2.1654 -0.001 
H 0.9886 2.1986 0.0204 
H 3.4365 2.1823 -0.0009 
H 5.4151 1.1501 -0.0309 
H 5.3828 -0.394 -0.9373 
H 5.4092 -0.4004 0.8657 
H 3.548 -1.9878 -0.0087 
H 1.0991 -2.1343 0.0112 
C -0.4847 1.4511 -6.6888 
N 0.286 0.5005 -5.8634 
C 1.3288 0.9259 -5.1243 
C 2.065 0.0231 -4.3478 
C 1.7537 -1.3478 -4.3058 
C 0.6524 -1.7282 -5.0935 
C -0.0631 -0.801 -5.8592 
C 2.5421 -2.3327 -3.4864 
C 3.6441 -1.9526 -2.6996 
C 4.3756 -2.8826 -1.9513 
N 4.0386 -4.1868 -1.9634 
C 4.8149 -5.1685 -1.181 
C 2.9883 -4.6099 -2.6942 
C 2.2375 -3.7051 -3.453 
H -0.0769 2.4584 -6.5784 
H -1.522 1.4264 -6.3453 
H -0.4063 1.1271 -7.7298 
H 1.5753 1.9843 -5.1547 
H 2.8922 0.4438 -3.7817 
H 0.3087 -2.7582 -5.1451 
H -0.9131 -1.0942 -6.4707 
H 3.9795 -0.9202 -2.6381 
H 5.2282 -2.5834 -1.3468 
H 5.626 -4.6658 -0.6493 
H 5.2237 -5.9027 -1.8803 
H 4.134 -5.6401 -0.4678 
H 2.7553 -5.6718 -2.6693 
H 1.408 -4.1257 -4.0159 
